powerfulcases/cases/matpower/case2383wp/case2383wp.raw
0, 100, 33, 0, 0, 60  / 28-Jan-2026 21:51:17 - MATPOWER 8.1


     1, 'BUS 1       ',       220, 1,    1,    1, 1,   1.0945877,  -1.4947677, 1.11, 0.95, 1.11, 0.95
     2, 'BUS 2       ',       220, 1,    1,    1, 1,   1.0853611,  -1.0101313, 1.11, 0.95, 1.11, 0.95
     3, 'BUS 3       ',       220, 1,    1,    1, 1,   1.0745702,  -26.208185, 1.11, 0.95, 1.11, 0.95
     4, 'BUS 4       ',       220, 1,    1,    1, 1,   1.0714122,  -8.5164763, 1.11, 0.95, 1.11, 0.95
     5, 'BUS 5       ',       220, 1,    1,    1, 1,   1.0665303,   -18.99745, 1.11, 0.95, 1.11, 0.95
     6, 'BUS 6       ',       400, 1,    1,    1, 1,   1.0235863,  -13.822343, 1.05, 0.95, 1.05, 0.95
     7, 'BUS 7       ',       220, 1,    1,    1, 1,   1.0597742,  -21.443703, 1.11, 0.95, 1.11, 0.95
     8, 'BUS 8       ',       400, 1,    1,    1, 1,   1.0274658,  -10.380289, 1.05, 0.95, 1.05, 0.95
     9, 'BUS 9       ',       400, 1,    1,    1, 1,   1.0356969,  -16.876105, 1.05, 0.95, 1.05, 0.95
    10, 'BUS 10      ',       220, 2,    1,    1, 1,   1.1082311,  -20.649904, 1.11, 0.95, 1.11, 0.95
    11, 'BUS 11      ',       220, 1,    1,    1, 1,    1.077772,  -7.0641396, 1.11, 0.95, 1.11, 0.95
    12, 'BUS 12      ',       220, 1,    1,    1, 1,   1.0668445,  -23.917665, 1.11, 0.95, 1.11, 0.95
    13, 'BUS 13      ',       220, 1,    1,    1, 1,   1.0651982,  -21.489714, 1.11, 0.95, 1.11, 0.95
    14, 'BUS 14      ',       220, 1,    1,    1, 1,   1.0663588,   -5.069768, 1.11, 0.95, 1.11, 0.95
    15, 'BUS 15      ',       400, 1,    1,    1, 1,   1.0094205,  -15.318814, 1.05, 0.95, 1.05, 0.95
    16, 'BUS 16      ',       220, 2,    1,    1, 1,   1.0974008, -0.98470838, 1.11, 0.95, 1.11, 0.95
    17, 'BUS 17      ',       220, 2,    1,    1, 1,   1.0910267, -0.14840674, 1.11, 0.95, 1.11, 0.95
    18, 'BUS 18      ',       400, 3,    1,    1, 1,   1.0337129,           0, 1.05, 0.95, 1.05, 0.95
    19, 'BUS 19      ',       220, 1,    1,    1, 1,   1.0659295,  -22.685677, 1.11, 0.95, 1.11, 0.95
    20, 'BUS 20      ',       400, 1,    1,    1, 1,   1.0371271,  -1.9368717, 1.05, 0.95, 1.05, 0.95
    21, 'BUS 21      ',       220, 1,    1,    1, 1,   1.0594484,  -21.874798, 1.11, 0.95, 1.11, 0.95
    22, 'BUS 22      ',       220, 1,    1,    1, 1,   1.0814061,   -12.38874, 1.11, 0.95, 1.11, 0.95
    23, 'BUS 23      ',       220, 1,    1,    2, 1,   1.0623561,  -16.684586, 1.11, 0.95, 1.11, 0.95
    24, 'BUS 24      ',       220, 1,    1,    2, 1,   1.0544773,  -12.101862, 1.11, 0.95, 1.11, 0.95
    25, 'BUS 25      ',       220, 1,    1,    2, 1,   1.0566312,  -10.623758, 1.11, 0.95, 1.11, 0.95
    26, 'BUS 26      ',       220, 1,    1,    2, 1,   1.0514089,  -19.520072, 1.11, 0.95, 1.11, 0.95
    27, 'BUS 27      ',       220, 1,    1,    2, 1,    1.065879,  -10.248111, 1.11, 0.95, 1.11, 0.95
    28, 'BUS 28      ',       220, 1,    1,    2, 1,   1.0658528,  -10.243115, 1.11, 0.95, 1.11, 0.95
    29, 'BUS 29      ',       220, 2,    1,    2, 1,   1.0967104,  -15.340069, 1.11, 0.95, 1.11, 0.95
    30, 'BUS 30      ',       220, 2,    1,    2, 1,   1.0967037,  -15.340793, 1.11, 0.95, 1.11, 0.95
    31, 'BUS 31      ',       400, 2,    1,    2, 1,   1.0214422,  -10.730991, 1.05, 0.95, 1.05, 0.95
    32, 'BUS 32      ',       400, 1,    1,    2, 1,   1.0214388,  -10.770221, 1.05, 0.95, 1.05, 0.95
    33, 'BUS 33      ',       220, 1,    1,    2, 1,   1.0603418,  -11.007759, 1.11, 0.95, 1.11, 0.95
    34, 'BUS 34      ',       400, 1,    1,    2, 1,   1.0437449,  -10.313949, 1.05, 0.95, 1.05, 0.95
    35, 'BUS 35      ',       400, 1,    1,    2, 1,   1.0437713,  -10.321962, 1.05, 0.95, 1.05, 0.95
    36, 'BUS 36      ',       400, 1,    1,    2, 1,   1.0036235,  -14.019908, 1.05, 0.95, 1.05, 0.95
    37, 'BUS 37      ',       220, 1,    1,    2, 1,   1.0617538,   -17.65358, 1.11, 0.95, 1.11, 0.95
    38, 'BUS 38      ',       220, 1,    1,    2, 1,   1.0617576,  -17.652543, 1.11, 0.95, 1.11, 0.95
    39, 'BUS 39      ',       400, 1,    1,    2, 1,   1.0154269,  -9.4424041, 1.05, 0.95, 1.05, 0.95
    40, 'BUS 40      ',       400, 1,    1,    2, 1,   1.0154039,  -9.4320741, 1.05, 0.95, 1.05, 0.95
    41, 'BUS 41      ',       220, 2,    1,    2, 1,   1.0608776,  -8.4979859, 1.11, 0.95, 1.11, 0.95
    42, 'BUS 42      ',       220, 2,    1,    2, 1,   1.0608614,  -8.5104656, 1.11, 0.95, 1.11, 0.95
    43, 'BUS 43      ',       400, 2,    1,    2, 1,   1.0229141,  -6.9130429, 1.05, 0.95, 1.05, 0.95
    44, 'BUS 44      ',       400, 2,    1,    2, 1,   1.0229414,  -6.9257613, 1.05, 0.95, 1.05, 0.95
    45, 'BUS 45      ',       220, 2,    1,    2, 1,   1.0792177,  -16.289871, 1.11, 0.95, 1.11, 0.95
    46, 'BUS 46      ',       220, 1,    1,    2, 1,   1.0792304,  -16.288302, 1.11, 0.95, 1.11, 0.95
    47, 'BUS 47      ',       220, 1,    1,    2, 1,   1.0601105,  -10.892212, 1.11, 0.95, 1.11, 0.95
    48, 'BUS 48      ',       220, 1,    1,    2, 1,   1.0778118,  -15.293456, 1.11, 0.95, 1.11, 0.95
    49, 'BUS 49      ',       220, 1,    1,    2, 1,   1.0778399,  -15.297932, 1.11, 0.95, 1.11, 0.95
    50, 'BUS 50      ',       400, 1,    1,    2, 1,   1.0308481,  -8.5192355, 1.05, 0.95, 1.05, 0.95
    51, 'BUS 51      ',       400, 1,    1,    2, 1,   1.0309346,  -8.5378387, 1.05, 0.95, 1.05, 0.95
    52, 'BUS 52      ',       220, 1,    1,    2, 1,   1.0531367,  -13.126893, 1.11, 0.95, 1.11, 0.95
    53, 'BUS 53      ',       220, 1,    1,    2, 1,   1.0551341,  -13.005169, 1.11, 0.95, 1.11, 0.95
    54, 'BUS 54      ',       220, 1,    1,    2, 1,    1.056839,  -10.553596, 1.11, 0.95, 1.11, 0.95
    55, 'BUS 55      ',       220, 1,    1,    2, 1,   1.0666858,  -16.701687, 1.11, 0.95, 1.11, 0.95
    56, 'BUS 56      ',       220, 1,    1,    3, 1,   1.0801732,  -5.1254995, 1.11, 0.95, 1.11, 0.95
    57, 'BUS 57      ',       220, 1,    1,    3, 1,   1.0788131,  -7.2859357, 1.11, 0.95, 1.11, 0.95
    58, 'BUS 58      ',       220, 1,    1,    3, 1,    1.079041,  -7.2859427, 1.11, 0.95, 1.11, 0.95
    59, 'BUS 59      ',       220, 1,    1,    3, 1,   1.1053709,  0.46680305, 1.11, 0.95, 1.11, 0.95
    60, 'BUS 60      ',       220, 1,    1,    3, 1,   1.1034167,  -3.8522131, 1.11, 0.95, 1.11, 0.95
    61, 'BUS 61      ',       220, 1,    1,    3, 1,   1.1084574,   2.0938304, 1.11, 0.95, 1.11, 0.95
    62, 'BUS 62      ',       220, 1,    1,    3, 1,   1.1084386,   2.0954656, 1.11, 0.95, 1.11, 0.95
    63, 'BUS 63      ',       220, 2,    1,    3, 1,        1.11,  0.81330015, 1.11, 0.95, 1.11, 0.95
    64, 'BUS 64      ',       220, 2,    1,    3, 1,   1.1092626,  0.64640274, 1.11, 0.95, 1.11, 0.95
    65, 'BUS 65      ',       220, 1,    1,    3, 1,   1.1032007,  -1.0285054, 1.11, 0.95, 1.11, 0.95
    66, 'BUS 66      ',       220, 1,    1,    3, 1,   1.1002514,  -8.6354732, 1.11, 0.95, 1.11, 0.95
    67, 'BUS 67      ',       400, 2,    1,    3, 1,        1.05,  -6.5572721, 1.05, 0.95, 1.05, 0.95
    68, 'BUS 68      ',       220, 1,    1,    3, 1,   1.1001654,  -6.9023386, 1.11, 0.95, 1.11, 0.95
    69, 'BUS 69      ',       220, 1,    1,    3, 1,   1.1069854, -0.83820638, 1.11, 0.95, 1.11, 0.95
    70, 'BUS 70      ',       220, 1,    1,    3, 1,   1.0848694,  -4.3023178, 1.11, 0.95, 1.11, 0.95
    71, 'BUS 71      ',       220, 1,    1,    3, 1,   1.0989066,   -1.837146, 1.11, 0.95, 1.11, 0.95
    72, 'BUS 72      ',       220, 1,    1,    3, 1,   1.0989066,   -1.837146, 1.11, 0.95, 1.11, 0.95
    73, 'BUS 73      ',       220, 1,    1,    3, 1,   1.0878356,  -3.6331435, 1.11, 0.95, 1.11, 0.95
    74, 'BUS 74      ',       220, 1,    1,    3, 1,   1.0848991,  -4.5132859, 1.11, 0.95, 1.11, 0.95
    75, 'BUS 75      ',       400, 1,    1,    3, 1,   1.0319269,  -1.6723208, 1.05, 0.95, 1.05, 0.95
    76, 'BUS 76      ',       400, 1,    1,    3, 1,    1.031903,  -1.6782928, 1.05, 0.95, 1.05, 0.95
    77, 'BUS 77      ',       220, 1,    1,    3, 1,   1.0986956,    -2.26735, 1.11, 0.95, 1.11, 0.95
    78, 'BUS 78      ',       220, 1,    1,    3, 1,   1.0966324,  -4.9713203, 1.11, 0.95, 1.11, 0.95
    79, 'BUS 79      ',       220, 1,    1,    3, 1,   1.0987986,   -1.276796, 1.11, 0.95, 1.11, 0.95
    80, 'BUS 80      ',       220, 1,    1,    3, 1,   1.0794572,  -7.2345064, 1.11, 0.95, 1.11, 0.95
    81, 'BUS 81      ',       220, 1,    1,    3, 1,   1.0794748,  -7.2341604, 1.11, 0.95, 1.11, 0.95
    82, 'BUS 82      ',       220, 1,    1,    3, 1,   1.1039055,   1.0127598, 1.11, 0.95, 1.11, 0.95
    83, 'BUS 83      ',       220, 2,    1,    3, 1,   1.1089547, -0.82047491, 1.11, 0.95, 1.11, 0.95
    84, 'BUS 84      ',       220, 2,    1,    3, 1,   1.1090726, -0.82183963, 1.11, 0.95, 1.11, 0.95
    85, 'BUS 85      ',       220, 2,    1,    3, 1,   1.1017195,  -2.2938246, 1.11, 0.95, 1.11, 0.95
    86, 'BUS 86      ',       220, 2,    1,    3, 1,   1.1016369,    -2.29227, 1.11, 0.95, 1.11, 0.95
    87, 'BUS 87      ',       220, 1,    1,    3, 1,   1.0893689,  -3.1476165, 1.11, 0.95, 1.11, 0.95
    88, 'BUS 88      ',       220, 1,    1,    3, 1,   1.0893851,  -3.1479875, 1.11, 0.95, 1.11, 0.95
    89, 'BUS 89      ',       220, 1,    1,    3, 1,   1.1000808,  -1.2380944, 1.11, 0.95, 1.11, 0.95
    90, 'BUS 90      ',       220, 1,    1,    3, 1,   1.1042303,  -1.7979475, 1.11, 0.95, 1.11, 0.95
    91, 'BUS 91      ',       220, 1,    1,    3, 1,   1.1025585, -0.66612181, 1.11, 0.95, 1.11, 0.95
    92, 'BUS 92      ',       400, 1,    1,    3, 1,   1.0237095,  -5.5065252, 1.05, 0.95, 1.05, 0.95
    93, 'BUS 93      ',       220, 2,    1,    3, 1,   1.1056302,  -0.2952057, 1.11, 0.95, 1.11, 0.95
    94, 'BUS 94      ',       220, 1,    1,    3, 1,   1.1056158, -0.29680978, 1.11, 0.95, 1.11, 0.95
    95, 'BUS 95      ',       220, 2,    1,    3, 1,   1.1075265,  -0.4539646, 1.11, 0.95, 1.11, 0.95
    96, 'BUS 96      ',       220, 1,    1,    3, 1,   1.1075224, -0.45839832, 1.11, 0.95, 1.11, 0.95
    97, 'BUS 97      ',       220, 2,    1,    3, 1,   1.0967425,  -4.8472969, 1.11, 0.95, 1.11, 0.95
    98, 'BUS 98      ',       400, 1,    1,    3, 1,   1.0231775,   -7.554412, 1.05, 0.95, 1.05, 0.95
    99, 'BUS 99      ',       400, 1,    1,    3, 1,   1.0232586,  -7.5444428, 1.05, 0.95, 1.05, 0.95
   100, 'BUS 100     ',       400, 1,    1,    3, 1,   1.0319735,  -5.1585252, 1.05, 0.95, 1.05, 0.95
   101, 'BUS 101     ',       400, 1,    1,    3, 1,   1.0319919,  -5.1492029, 1.05, 0.95, 1.05, 0.95
   102, 'BUS 102     ',       220, 1,    1,    3, 1,   1.1020054,    -1.14745, 1.11, 0.95, 1.11, 0.95
   103, 'BUS 103     ',       220, 2,    1,    3, 1,   1.1067084,   -1.913684, 1.11, 0.95, 1.11, 0.95
   104, 'BUS 104     ',       220, 2,    1,    3, 1,    1.106757,  -1.9078196, 1.11, 0.95, 1.11, 0.95
   105, 'BUS 105     ',       400, 2,    1,    3, 1,   1.0166743,  -4.8853891, 1.05, 0.95, 1.05, 0.95
   106, 'BUS 106     ',       400, 1,    1,    3, 1,   1.0168266,  -4.8990837, 1.05, 0.95, 1.05, 0.95
   107, 'BUS 107     ',       220, 1,    1,    3, 1,   1.0835964,  -4.5876186, 1.11, 0.95, 1.11, 0.95
   108, 'BUS 108     ',       220, 1,    1,    3, 1,   1.0853205,  -4.4168627, 1.11, 0.95, 1.11, 0.95
   109, 'BUS 109     ',       220, 2,    1,    3, 1,        1.11,   2.8143573, 1.11, 0.95, 1.11, 0.95
   110, 'BUS 110     ',       220, 2,    1,    3, 1,        1.11,   2.8158748, 1.11, 0.95, 1.11, 0.95
   111, 'BUS 111     ',       220, 2,    1,    4, 1,   1.1066085,  -14.342043, 1.11, 0.95, 1.11, 0.95
   112, 'BUS 112     ',       220, 1,    1,    4, 1,   1.1064908,  -14.335874, 1.11, 0.95, 1.11, 0.95
   113, 'BUS 113     ',       220, 1,    1,    4, 1,   1.0622147,  -26.875135, 1.11, 0.95, 1.11, 0.95
   114, 'BUS 114     ',       220, 1,    1,    4, 1,   1.0754961,  -26.337792, 1.11, 0.95, 1.11, 0.95
   115, 'BUS 115     ',       400, 1,    1,    4, 1,  0.98336245,  -20.290762, 1.05, 0.95, 1.05, 0.95
   116, 'BUS 116     ',       400, 1,    1,    4, 1,   0.9833576,  -20.281214, 1.05, 0.95, 1.05, 0.95
   117, 'BUS 117     ',       220, 1,    1,    4, 1,   1.0726984,  -30.012965, 1.11, 0.95, 1.11, 0.95
   118, 'BUS 118     ',       220, 1,    1,    4, 1,   1.0671655,  -38.724474, 1.11, 0.95, 1.11, 0.95
   119, 'BUS 119     ',       220, 1,    1,    4, 1,   1.0671655,  -38.724474, 1.11, 0.95, 1.11, 0.95
   120, 'BUS 120     ',       220, 1,    1,    4, 1,   1.0513316,  -37.190715, 1.11, 0.95, 1.11, 0.95
   121, 'BUS 121     ',       220, 1,    1,    4, 1,   1.0699553,   -26.91977, 1.11, 0.95, 1.11, 0.95
   122, 'BUS 122     ',       220, 1,    1,    4, 1,   1.0699553,   -26.91977, 1.11, 0.95, 1.11, 0.95
   123, 'BUS 123     ',       220, 2,    1,    4, 1,   1.1096575,  -19.400308, 1.11, 0.95, 1.11, 0.95
   124, 'BUS 124     ',       220, 2,    1,    4, 1,   1.1096796,  -19.394703, 1.11, 0.95, 1.11, 0.95
   125, 'BUS 125     ',       220, 2,    1,    4, 1,   1.1062235,  -35.575758, 1.11, 0.95, 1.11, 0.95
   126, 'BUS 126     ',       220, 1,    1,    4, 1,   1.1060523,  -35.563149, 1.11, 0.95, 1.11, 0.95
   127, 'BUS 127     ',       400, 2,    1,    4, 1,   1.0330077,  -27.760745, 1.05, 0.95, 1.05, 0.95
   128, 'BUS 128     ',       400, 1,    1,    4, 1,   1.0329471,  -27.768773, 1.05, 0.95, 1.05, 0.95
   129, 'BUS 129     ',       220, 1,    1,    4, 1,   1.0451738,  -32.578133, 1.11, 0.95, 1.11, 0.95
   130, 'BUS 130     ',       220, 1,    1,    4, 1,   1.0345938,  -33.954129, 1.11, 0.95, 1.11, 0.95
   131, 'BUS 131     ',       220, 2,    1,    4, 1,   1.0993161,  -24.081795, 1.11, 0.95, 1.11, 0.95
   132, 'BUS 132     ',       220, 2,    1,    4, 1,   1.0994336,    -24.0968, 1.11, 0.95, 1.11, 0.95
   133, 'BUS 133     ',       400, 1,    1,    4, 1,  0.99528738,   -19.61073, 1.05, 0.95, 1.05, 0.95
   134, 'BUS 134     ',       400, 1,    1,    4, 1,  0.99528984,  -19.609417, 1.05, 0.95, 1.05, 0.95
   135, 'BUS 135     ',       220, 1,    1,    4, 1,   1.0672352,  -38.652391, 1.11, 0.95, 1.11, 0.95
   136, 'BUS 136     ',       220, 1,    1,    4, 1,   1.0672352,  -38.652391, 1.11, 0.95, 1.11, 0.95
   137, 'BUS 137     ',       400, 1,    1,    4, 1,   1.0000355,  -16.649236, 1.05, 0.95, 1.05, 0.95
   138, 'BUS 138     ',       400, 1,    1,    4, 1,   1.0000355,  -16.649236, 1.05, 0.95, 1.05, 0.95
   139, 'BUS 139     ',       220, 2,    1,    4, 1,        1.11,  -19.694688, 1.11, 0.95, 1.11, 0.95
   140, 'BUS 140     ',       220, 2,    1,    4, 1,   1.1099933,  -19.702053, 1.11, 0.95, 1.11, 0.95
   141, 'BUS 141     ',       220, 1,    1,    4, 1,    1.048715,  -35.311344, 1.11, 0.95, 1.11, 0.95
   142, 'BUS 142     ',       220, 1,    1,    4, 1,    1.064119,  -38.929037, 1.11, 0.95, 1.11, 0.95
   143, 'BUS 143     ',       220, 1,    1,    4, 1,   1.0713386,  -31.500664, 1.11, 0.95, 1.11, 0.95
   144, 'BUS 144     ',       220, 1,    1,    4, 1,   1.0712535,  -31.499755, 1.11, 0.95, 1.11, 0.95
   145, 'BUS 145     ',       400, 1,    1,    4, 1,  0.97659289,  -31.179217, 1.05, 0.95, 1.05, 0.95
   146, 'BUS 146     ',       400, 1,    1,    4, 1,  0.97659289,  -31.179217, 1.05, 0.95, 1.05, 0.95
   147, 'BUS 147     ',       220, 1,    1,    4, 1,   1.0443448,  -30.604356, 1.11, 0.95, 1.11, 0.95
   148, 'BUS 148     ',       220, 1,    1,    4, 1,   1.0443916,  -30.598683, 1.11, 0.95, 1.11, 0.95
   149, 'BUS 149     ',       220, 1,    1,    4, 1,   1.0678968,  -32.197135, 1.11, 0.95, 1.11, 0.95
   150, 'BUS 150     ',       220, 1,    1,    4, 1,   1.0650767,  -26.052001, 1.11, 0.95, 1.11, 0.95
   151, 'BUS 151     ',       220, 1,    1,    4, 1,   1.0651101,  -26.059553, 1.11, 0.95, 1.11, 0.95
   152, 'BUS 152     ',       220, 1,    1,    4, 1,   1.0585155,  -22.471056, 1.11, 0.95, 1.11, 0.95
   153, 'BUS 153     ',       220, 1,    1,    4, 1,   1.0585155,  -22.471056, 1.11, 0.95, 1.11, 0.95
   154, 'BUS 154     ',       220, 1,    1,    4, 1,   1.0281414,  -32.398849, 1.11, 0.95, 1.11, 0.95
   155, 'BUS 155     ',       220, 1,    1,    5, 1,   1.0546513,  -27.826247, 1.11, 0.95, 1.11, 0.95
   156, 'BUS 156     ',       220, 1,    1,    5, 1,        1.11,  -30.199576, 1.11, 0.95, 1.11, 0.95
   157, 'BUS 157     ',       400, 1,    1,    5, 1,   1.0249742,  -28.306241, 1.05, 0.95, 1.05, 0.95
   158, 'BUS 158     ',       400, 1,    1,    5, 1,   1.0249445,  -28.299084, 1.05, 0.95, 1.05, 0.95
   159, 'BUS 159     ',       400, 1,    1,    5, 1,   1.0281885,   -25.15157, 1.05, 0.95, 1.05, 0.95
   160, 'BUS 160     ',       400, 1,    1,    5, 1,   1.0282505,  -25.159467, 1.05, 0.95, 1.05, 0.95
   161, 'BUS 161     ',       220, 1,    1,    5, 1,   1.0551509,  -31.094903, 1.11, 0.95, 1.11, 0.95
   162, 'BUS 162     ',       220, 1,    1,    5, 1,   1.0551612,  -31.095945, 1.11, 0.95, 1.11, 0.95
   163, 'BUS 163     ',       220, 1,    1,    5, 1,   1.0871116,  -28.613244, 1.11, 0.95, 1.11, 0.95
   164, 'BUS 164     ',       220, 1,    1,    5, 1,   1.0870899,  -28.614645, 1.11, 0.95, 1.11, 0.95
   165, 'BUS 165     ',       400, 1,    1,    5, 1,   1.0015127,  -22.606405, 1.05, 0.95, 1.05, 0.95
   166, 'BUS 166     ',       220, 1,    1,    5, 1,   1.0669085,  -27.062976, 1.11, 0.95, 1.11, 0.95
   167, 'BUS 167     ',       220, 1,    1,    5, 1,   1.0669473,  -27.061011, 1.11, 0.95, 1.11, 0.95
   168, 'BUS 168     ',       400, 1,    1,    5, 1,   1.0301024,  -26.893903, 1.05, 0.95, 1.05, 0.95
   169, 'BUS 169     ',       400, 1,    1,    5, 1,   1.0300885,  -26.900803, 1.05, 0.95, 1.05, 0.95
   170, 'BUS 170     ',       220, 1,    1,    5, 1,   1.0558357,  -27.940656, 1.11, 0.95, 1.11, 0.95
   171, 'BUS 171     ',       220, 1,    1,    5, 1,   1.0558643,  -27.937264, 1.11, 0.95, 1.11, 0.95
   172, 'BUS 172     ',       220, 1,    1,    5, 1,   1.0622074,  -29.119619, 1.11, 0.95, 1.11, 0.95
   173, 'BUS 173     ',       220, 1,    1,    5, 1,   1.0621703,  -29.117898, 1.11, 0.95, 1.11, 0.95
   174, 'BUS 174     ',       220, 1,    1,    5, 1,   1.0599592,   -26.90187, 1.11, 0.95, 1.11, 0.95
   175, 'BUS 175     ',       220, 1,    1,    5, 1,   1.0599468,  -26.909123, 1.11, 0.95, 1.11, 0.95
   176, 'BUS 176     ',       400, 2,    1,    5, 1,   1.0312974,  -23.918174, 1.05, 0.95, 1.05, 0.95
   177, 'BUS 177     ',       400, 2,    1,    5, 1,   1.0314652,  -23.915354, 1.05, 0.95, 1.05, 0.95
   178, 'BUS 178     ',       220, 1,    1,    5, 1,   1.0784273,  -32.277798, 1.11, 0.95, 1.11, 0.95
   179, 'BUS 179     ',       220, 1,    1,    5, 1,   1.0784605,   -32.27305, 1.11, 0.95, 1.11, 0.95
   180, 'BUS 180     ',       400, 2,    2,    6, 1,   1.0088011,    -7.67851, 1.05, 0.95, 1.05, 0.95
   181, 'BUS 181     ',       220, 2,    3,    6, 1,    1.107243,   -9.829618, 1.11, 0.95, 1.11, 0.95
   182, 'BUS 182     ',       400, 2,    5,    6, 1,  0.99674384,  -19.315074, 1.05, 0.95, 1.05, 0.95
   183, 'BUS 183     ',       400, 1,    3,    6, 1,        1.05,  -11.249574, 1.05, 0.95, 1.05, 0.95
   184, 'BUS 184     ',       220, 2,    2,    6, 1,   1.0968373,  -4.7574182, 1.11, 0.95, 1.11, 0.95
   185, 'BUS 185     ',       400, 2,    2,    6, 1,   1.0079864,  -8.4602128, 1.05, 0.95, 1.05, 0.95
   186, 'BUS 186     ',       220, 2,    5,    6, 1,   1.1085323,  -35.707557, 1.11, 0.95, 1.11, 0.95
   187, 'BUS 187     ',       110, 1,    1,    1, 1,   1.0661462,  -25.696348, 1.12, 0.95, 1.12, 0.95
   188, 'BUS 188     ',       110, 1,    1,    1, 1,   1.0417885,  -32.262122, 1.12, 0.95, 1.12, 0.95
   189, 'BUS 189     ',       110, 1,    1,    1, 1,  0.99718305,    -29.5143, 1.12, 0.95, 1.12, 0.95
   190, 'BUS 190     ',       110, 1,    1,    1, 1,   1.1039302,   -5.684507, 1.12, 0.95, 1.12, 0.95
   191, 'BUS 191     ',       110, 1,    1,    1, 1,   1.0850303,  -6.8881668, 1.12, 0.95, 1.12, 0.95
   192, 'BUS 192     ',       110, 2,    1,    1, 1,        1.12,  -22.081124, 1.12, 0.95, 1.12, 0.95
   193, 'BUS 193     ',       110, 1,    1,    1, 1,   1.1188593,  -21.954733, 1.12, 0.95, 1.12, 0.95
   194, 'BUS 194     ',       110, 1,    1,    1, 1,   1.1185785,  -22.247684, 1.12, 0.95, 1.12, 0.95
   195, 'BUS 195     ',       110, 1,    1,    1, 1,   1.0830451,  -26.733431, 1.12, 0.95, 1.12, 0.95
   196, 'BUS 196     ',       110, 2,    1,    1, 1,   1.0192036,  -33.404165, 1.12, 0.95, 1.12, 0.95
   197, 'BUS 197     ',       110, 1,    1,    1, 1,   1.0731126,  -15.402964, 1.12, 0.95, 1.12, 0.95
   198, 'BUS 198     ',       110, 2,    1,    1, 1,   1.0753335,  -26.893503, 1.12, 0.95, 1.12, 0.95
   199, 'BUS 199     ',       110, 1,    1,    1, 1,   1.1078311,   -8.269607, 1.12, 0.95, 1.12, 0.95
   200, 'BUS 200     ',       110, 1,    1,    1, 1,   1.0976338,  -25.949869, 1.12, 0.95, 1.12, 0.95
...
0 / END OF BUS DATA, BEGIN LOAD DATA
    10,  1, 1,    1,    1,     12.23,         9, 0, 0, 0, 0, 1, 1, 0
    16,  1, 1,    1,    1,     54.88,       100, 0, 0, 0, 0, 1, 1, 0
    17,  1, 1,    1,    1,        77,       150, 0, 0, 0, 0, 1, 1, 0
    18,  1, 1,    1,    1,       153,       350, 0, 0, 0, 0, 1, 1, 0
    29,  1, 1,    1,    2,     25.98,        60, 0, 0, 0, 0, 1, 1, 0
    30,  1, 1,    1,    2,     25.98,        60, 0, 0, 0, 0, 1, 1, 0
    31,  1, 1,    1,    2,     20.98,        50, 0, 0, 0, 0, 1, 1, 0
    41,  1, 1,    1,    2,     11.99,        30, 0, 0, 0, 0, 1, 1, 0
    42,  1, 1,    1,    2,     11.99,        30, 0, 0, 0, 0, 1, 1, 0
    43,  1, 1,    1,    2,     23.98,        60, 0, 0, 0, 0, 1, 1, 0
    44,  1, 1,    1,    2,     23.98,        60, 0, 0, 0, 0, 1, 1, 0
    45,  1, 1,    1,    2,    159.84,        75, 0, 0, 0, 0, 1, 1, 0
    57,  1, 1,    1,    3,     22.98,     10.96, 0, 0, 0, 0, 1, 1, 0
    58,  1, 1,    1,    3,     21.98,      5.79, 0, 0, 0, 0, 1, 1, 0
    63,  1, 1,    1,    3,     37.37,     52.69, 0, 0, 0, 0, 1, 1, 0
    64,  1, 1,    1,    3,     35.37,     55.32, 0, 0, 0, 0, 1, 1, 0
    65,  1, 1,    1,    3,     13.39,      2.02, 0, 0, 0, 0, 1, 1, 0
    67,  1, 1,    1,    3,      60.4,      92.1, 0, 0, 0, 0, 1, 1, 0
    83,  1, 1,    1,    3,     15.99,     22.97, 0, 0, 0, 0, 1, 1, 0
    84,  1, 1,    1,    3,     15.79,     22.27, 0, 0, 0, 0, 1, 1, 0
    85,  1, 1,    1,    3,      9.99,     17.01, 0, 0, 0, 0, 1, 1, 0
    86,  1, 1,    1,    3,      9.99,     16.66, 0, 0, 0, 0, 1, 1, 0
    87,  1, 1,    1,    3,     11.09,     16.22, 0, 0, 0, 0, 1, 1, 0
    93,  1, 1,    1,    3,      9.99,     16.39, 0, 0, 0, 0, 1, 1, 0
    95,  1, 1,    1,    3,      6.89,      8.15, 0, 0, 0, 0, 1, 1, 0
    97,  1, 1,    1,    3,      8.69,      5.26, 0, 0, 0, 0, 1, 1, 0
   103,  1, 1,    1,    3,     18.09,     23.76, 0, 0, 0, 0, 1, 1, 0
   104,  1, 1,    1,    3,     33.68,     46.11, 0, 0, 0, 0, 1, 1, 0
   105,  1, 1,    1,    3,     33.78,     62.95, 0, 0, 0, 0, 1, 1, 0
   109,  1, 1,    1,    3,         1,     22.36, 0, 0, 0, 0, 1, 1, 0
   110,  1, 1,    1,    3,         1,     22.18, 0, 0, 0, 0, 1, 1, 0
   111,  1, 1,    1,    4,     26.49,        18, 0, 0, 0, 0, 1, 1, 0
   123,  1, 1,    1,    4,       5.5,         7, 0, 0, 0, 0, 1, 1, 0
   124,  1, 1,    1,    4,      8.79,        17, 0, 0, 0, 0, 1, 1, 0
   125,  1, 1,    1,    4,      35.7,      18.3, 0, 0, 0, 0, 1, 1, 0
   126,  1, 1,    1,    4,     25.28,      15.9, 0, 0, 0, 0, 1, 1, 0
   127,  1, 1,    1,    4,     25.71,      15.3, 0, 0, 0, 0, 1, 1, 0
   131,  1, 1,    1,    4,     68.67,        70, 0, 0, 0, 0, 1, 1, 0
   132,  1, 1,    1,    4,        33,        45, 0, 0, 0, 0, 1, 1, 0
   139,  1, 1,    1,    4,      33.2,      22.6, 0, 0, 0, 0, 1, 1, 0
   140,  1, 1,    1,    4,     29.23,      19.6, 0, 0, 0, 0, 1, 1, 0
   180,  1, 1,    2,    6,    339.85,      49.6, 0, 0, 0, 0, 1, 1, 0
   183,  1, 1,    3,    6,       150,         0, 0, 0, 0, 0, 1, 1, 0
   184,  1, 1,    2,    6,    317.34,      50.3, 0, 0, 0, 0, 1, 1, 0
   185,  1, 1,    2,    6,    362.43,      36.7, 0, 0, 0, 0, 1, 1, 0
   186,  1, 1,    5,    6,     33.33,         1, 0, 0, 0, 0, 1, 1, 0
   187,  1, 1,    1,    1,      7.12,       1.5, 0, 0, 0, 0, 1, 1, 0
   188,  1, 1,    1,    1,      7.63,         1, 0, 0, 0, 0, 1, 1, 0
   189,  1, 1,    1,    1,      9.77,       8.7, 0, 0, 0, 0, 1, 1, 0
   190,  1, 1,    1,    1,      6.12,       1.5, 0, 0, 0, 0, 1, 1, 0
   191,  1, 1,    1,    1,      6.12,       1.6, 0, 0, 0, 0, 1, 1, 0
   192,  1, 1,    1,    1,     30.56,        12, 0, 0, 0, 0, 1, 1, 0
   193,  1, 1,    1,    1,     15.28,         3, 0, 0, 0, 0, 1, 1, 0
   195,  1, 1,    1,    1,      8.14,         2, 0, 0, 0, 0, 1, 1, 0
   196,  1, 1,    1,    1,      6.92,       1.5, 0, 0, 0, 0, 1, 1, 0
   197,  1, 1,    1,    1,      6.92,       1.5, 0, 0, 0, 0, 1, 1, 0
   198,  1, 1,    1,    1,     12.32,       1.7, 0, 0, 0, 0, 1, 1, 0
   199,  1, 1,    1,    1,      1.43,       0.5, 0, 0, 0, 0, 1, 1, 0
   200,  1, 1,    1,    1,      1.08,       0.5, 0, 0, 0, 0, 1, 1, 0
   201,  1, 1,    1,    1,      5.61,       0.5, 0, 0, 0, 0, 1, 1, 0
   202,  1, 1,    1,    1,     18.34,         2, 0, 0, 0, 0, 1, 1, 0
   203,  1, 1,    1,    1,      11.1,       1.6, 0, 0, 0, 0, 1, 1, 0
   205,  1, 1,    1,    1,      6.92,         2, 0, 0, 0, 0, 1, 1, 0
   206,  1, 1,    1,    1,      11.2,         1, 0, 0, 0, 0, 1, 1, 0
   207,  1, 1,    1,    1,      7.32,       1.6, 0, 0, 0, 0, 1, 1, 0
   208,  1, 1,    1,    1,     -7.32,      -4.5, 0, 0, 0, 0, 1, 1, 0
   209,  1, 1,    1,    1,      9.36,       0.8, 0, 0, 0, 0, 1, 1, 0
   210,  1, 1,    1,    1,     15.18,       4.4, 0, 0, 0, 0, 1, 1, 0
   211,  1, 1,    1,    1,      8.75,       0.2, 0, 0, 0, 0, 1, 1, 0
   212,  1, 1,    1,    1,     10.18,       1.5, 0, 0, 0, 0, 1, 1, 0
   213,  1, 1,    1,    1,     -2.04,        -1, 0, 0, 0, 0, 1, 1, 0
   214,  1, 1,    1,    1,     12.02,       0.5, 0, 0, 0, 0, 1, 1, 0
   215,  1, 1,    1,    1,      6.92,         2, 0, 0, 0, 0, 1, 1, 0
   216,  1, 1,    1,    1,      8.85,       0.5, 0, 0, 0, 0, 1, 1, 0
   217,  1, 1,    1,    1,      1.94,       0.4, 0, 0, 0, 0, 1, 1, 0
   218,  1, 1,    1,    1,     12.22,       1.5, 0, 0, 0, 0, 1, 1, 0
   219,  1, 1,    1,    1,      2.55,       0.5, 0, 0, 0, 0, 1, 1, 0
   220,  1, 1,    1,    1,      2.55,       0.5, 0, 0, 0, 0, 1, 1, 0
   221,  1, 1,    1,    1,      4.08,       0.5, 0, 0, 0, 0, 1, 1, 0
   222,  1, 1,    1,    1,      6.53,       0.4, 0, 0, 0, 0, 1, 1, 0
   223,  1, 1,    1,    1,     18.65,         4, 0, 0, 0, 0, 1, 1, 0
   224,  1, 1,    1,    1,     19.86,       2.5, 0, 0, 0, 0, 1, 1, 0
   225,  1, 1,    1,    1,      17.3,         2, 0, 0, 0, 0, 1, 1, 0
   226,  1, 1,    1,    1,     24.44,       1.5, 0, 0, 0, 0, 1, 1, 0
   227,  1, 1,    1,    1,      5.61,         1, 0, 0, 0, 0, 1, 1, 0
   228,  1, 1,    1,    1,      11.4,       1.1, 0, 0, 0, 0, 1, 1, 0
   229,  1, 1,    1,    1,        11,       2.7, 0, 0, 0, 0, 1, 1, 0
   230,  1, 1,    1,    1,      7.63,         1, 0, 0, 0, 0, 1, 1, 0
   231,  1, 1,    1,    1,      7.94,       1.1, 0, 0, 0, 0, 1, 1, 0
   232,  1, 1,    1,    1,      7.94,       1.1, 0, 0, 0, 0, 1, 1, 0
   233,  1, 1,    1,    1,      1.84,       0.8, 0, 0, 0, 0, 1, 1, 0
   234,  1, 1,    1,    1,     33.46,        28, 0, 0, 0, 0, 1, 1, 0
   235,  1, 1,    1,    1,     33.76,        28, 0, 0, 0, 0, 1, 1, 0
   236,  1, 1,    1,    1,      1.02,       0.5, 0, 0, 0, 0, 1, 1, 0
   237,  1, 1,    1,    1,     13.95,       1.7, 0, 0, 0, 0, 1, 1, 0
   238,  1, 1,    1,    1,      9.98,         1, 0, 0, 0, 0, 1, 1, 0
   239,  1, 1,    1,    1,     15.28,       1.5, 0, 0, 0, 0, 1, 1, 0
   240,  1, 1,    1,    1,      11.2,       1.5, 0, 0, 0, 0, 1, 1, 0
   241,  1, 1,    1,    1,     10.18,         3, 0, 0, 0, 0, 1, 1, 0
   242,  1, 1,    1,    1,      1.22,       0.1, 0, 0, 0, 0, 1, 1, 0
   244,  1, 1,    1,    1,      1.02,         0, 0, 0, 0, 0, 1, 1, 0
   245,  1, 1,    1,    1,     12.12,       5.4, 0, 0, 0, 0, 1, 1, 0
   246,  1, 1,    1,    1,     -8.14,      -3.6, 0, 0, 0, 0, 1, 1, 0
   247,  1, 1,    1,    1,      11.2,       1.5, 0, 0, 0, 0, 1, 1, 0
   248,  1, 1,    1,    1,      3.06,       0.5, 0, 0, 0, 0, 1, 1, 0
   249,  1, 1,    1,    1,      9.16,         0, 0, 0, 0, 0, 1, 1, 0
   250,  1, 1,    1,    1,     27.71,         3, 0, 0, 0, 0, 1, 1, 0
   251,  1, 1,    1,    1,     21.38,         4, 0, 0, 0, 0, 1, 1, 0
   252,  1, 1,    1,    1,     21.38,         4, 0, 0, 0, 0, 1, 1, 0
   253,  1, 1,    1,    1,     14.87,       4.3, 0, 0, 0, 0, 1, 1, 0
   254,  1, 1,    1,    1,     19.86,       3.5, 0, 0, 0, 0, 1, 1, 0
   255,  1, 1,    1,    1,     10.18,         1, 0, 0, 0, 0, 1, 1, 0
   256,  1, 1,    1,    1,      5.61,         0, 0, 0, 0, 0, 1, 1, 0
   257,  1, 1,    1,    1,      7.12,       0.2, 0, 0, 0, 0, 1, 1, 0
   258,  1, 1,    1,    1,      4.08,       0.3, 0, 0, 0, 0, 1, 1, 0
   259,  1, 1,    1,    1,     20.87,       4.2, 0, 0, 0, 0, 1, 1, 0
   260,  1, 1,    1,    1,     10.69,       1.5, 0, 0, 0, 0, 1, 1, 0
   261,  1, 1,    1,    1,      7.94,         2, 0, 0, 0, 0, 1, 1, 0
   262,  1, 1,    1,    1,       0.2,         0, 0, 0, 0, 0, 1, 1, 0
   263,  1, 1,    1,    1,       5.3,         1, 0, 0, 0, 0, 1, 1, 0
   264,  1, 1,    1,    1,     12.22,         1, 0, 0, 0, 0, 1, 1, 0
   265,  1, 1,    1,    1,     12.22,         1, 0, 0, 0, 0, 1, 1, 0
   266,  1, 1,    1,    1,      8.34,       1.6, 0, 0, 0, 0, 1, 1, 0
   267,  1, 1,    1,    1,     10.38,         3, 0, 0, 0, 0, 1, 1, 0
   268,  1, 1,    1,    1,     14.87,       3.7, 0, 0, 0, 0, 1, 1, 0
   269,  1, 1,    1,    1,     15.28,         4, 0, 0, 0, 0, 1, 1, 0
   270,  1, 1,    1,    1,      3.67,       0.5, 0, 0, 0, 0, 1, 1, 0
   271,  1, 1,    1,    1,      3.67,       0.5, 0, 0, 0, 0, 1, 1, 0
   272,  1, 1,    1,    1,      9.26,         3, 0, 0, 0, 0, 1, 1, 0
   273,  1, 1,    1,    1,     12.93,       3.7, 0, 0, 0, 0, 1, 1, 0
   274,  1, 1,    1,    1,     25.67,       7.4, 0, 0, 0, 0, 1, 1, 0
   275,  1, 1,    1,    1,     23.22,       6.7, 0, 0, 0, 0, 1, 1, 0
   276,  1, 1,    1,    1,     14.26,       5.1, 0, 0, 0, 0, 1, 1, 0
   277,  1, 1,    1,    1,     52.14,      20.4, 0, 0, 0, 0, 1, 1, 0
   278,  1, 1,    1,    1,     24.95,       9.7, 0, 0, 0, 0, 1, 1, 0
   279,  1, 1,    1,    1,     24.95,       9.7, 0, 0, 0, 0, 1, 1, 0
   281,  1, 1,    1,    1,     30.66,      11.9, 0, 0, 0, 0, 1, 1, 0
   282,  1, 1,    1,    1,     13.14,       5.1, 0, 0, 0, 0, 1, 1, 0
   283,  1, 1,    1,    1,     17.02,       0.2, 0, 0, 0, 0, 1, 1, 0
   284,  1, 1,    1,    1,      2.55,       0.5, 0, 0, 0, 0, 1, 1, 0
   285,  1, 1,    1,    1,      8.14,       1.5, 0, 0, 0, 0, 1, 1, 0
   286,  1, 1,    1,    1,     29.75,       4.1, 0, 0, 0, 0, 1, 1, 0
   287,  1, 1,    1,    1,     12.22,         4, 0, 0, 0, 0, 1, 1, 0
   288,  1, 1,    1,    1,     13.14,       3.8, 0, 0, 0, 0, 1, 1, 0
   289,  1, 1,    1,    1,     21.28,       6.1, 0, 0, 0, 0, 1, 1, 0
   290,  1, 1,    1,    1,     17.32,         3, 0, 0, 0, 0, 1, 1, 0
   291,  1, 1,    1,    1,     16.81,       5.4, 0, 0, 0, 0, 1, 1, 0
   292,  1, 1,    1,    1,     17.32,         5, 0, 0, 0, 0, 1, 1, 0
   293,  1, 1,    1,    1,      7.43,       2.1, 0, 0, 0, 0, 1, 1, 0
   294,  1, 1,    1,    1,     15.28,         3, 0, 0, 0, 0, 1, 1, 0
   295,  1, 1,    1,    1,     21.28,       3.4, 0, 0, 0, 0, 1, 1, 0
   296,  1, 1,    1,    1,     17.63,       5.1, 0, 0, 0, 0, 1, 1, 0
   297,  1, 1,    1,    1,      8.55,         2, 0, 0, 0, 0, 1, 1, 0
   298,  1, 1,    1,    1,      7.02,       1.6, 0, 0, 0, 0, 1, 1, 0
   299,  1, 1,    1,    1,     48.06,      13.8, 0, 0, 0, 0, 1, 1, 0
   300,  1, 1,    1,    1,     21.38,         9, 0, 0, 0, 0, 1, 1, 0
   301,  1, 1,    1,    1,      6.22,       1.3, 0, 0, 0, 0, 1, 1, 0
   302,  1, 1,    1,    1,      6.12,       1.3, 0, 0, 0, 0, 1, 1, 0
   303,  1, 1,    1,    1,      6.32,       0.5, 0, 0, 0, 0, 1, 1, 0
   304,  1, 1,    1,    1,     17.83,       5.1, 0, 0, 0, 0, 1, 1, 0
   305,  1, 1,    1,    1,      7.53,       1.1, 0, 0, 0, 0, 1, 1, 0
   306,  1, 1,    1,    1,     21.38,         4, 0, 0, 0, 0, 1, 1, 0
   307,  1, 1,    1,    1,     18.34,         4, 0, 0, 0, 0, 1, 1, 0
   308,  1, 1,    1,    1,       5.1,         0, 0, 0, 0, 0, 1, 1, 0
   311,  1, 1,    1,    1,      32.4,       5.7, 0, 0, 0, 0, 1, 1, 0
   313,  1, 1,    1,    1,      7.12,       0.5, 0, 0, 0, 0, 1, 1, 0
   314,  1, 1,    1,    1,      7.73,       1.5, 0, 0, 0, 0, 1, 1, 0
   315,  1, 1,    1,    1,      9.47,         0, 0, 0, 0, 0, 1, 1, 0
   316,  1, 1,    1,    1,      16.2,         4, 0, 0, 0, 0, 1, 1, 0
   317,  1, 1,    1,    1,      7.12,         2, 0, 0, 0, 0, 1, 1, 0
   318,  1, 1,    1,    1,      6.12,         2, 0, 0, 0, 0, 1, 1, 0
   319,  1, 1,    1,    1,      0.81,       0.3, 0, 0, 0, 0, 1, 1, 0
   320,  1, 1,    1,    1,      7.12,         1, 0, 0, 0, 0, 1, 1, 0
   323,  1, 1,    1,    1,      9.98,       1.8, 0, 0, 0, 0, 1, 1, 0
   324,  1, 1,    1,    1,      11.2,       1.6, 0, 0, 0, 0, 1, 1, 0
   325,  1, 1,    1,    1,     13.65,       0.3, 0, 0, 0, 0, 1, 1, 0
   326,  1, 1,    1,    1,      6.62,       1.2, 0, 0, 0, 0, 1, 1, 0
   327,  1, 1,    1,    1,      4.08,       0.1, 0, 0, 0, 0, 1, 1, 0
   328,  1, 1,    1,    1,     45.83,        23, 0, 0, 0, 0, 1, 1, 0
   329,  1, 1,    1,    1,     45.83,        23, 0, 0, 0, 0, 1, 1, 0
   330,  1, 1,    1,    1,     48.36,        22, 0, 0, 0, 0, 1, 1, 0
   331,  1, 1,    1,    1,     48.36,        22, 0, 0, 0, 0, 1, 1, 0
   333,  1, 1,    1,    1,      9.47,       0.4, 0, 0, 0, 0, 1, 1, 0
   334,  1, 1,    1,    1,     16.81,       0.7, 0, 0, 0, 0, 1, 1, 0
   335,  1, 1,    1,    1,      4.08,         1, 0, 0, 0, 0, 1, 1, 0
   337,  1, 1,    1,    1,     17.83,       5.5, 0, 0, 0, 0, 1, 1, 0
   338,  1, 1,    1,    1,      2.55,       1.2, 0, 0, 0, 0, 1, 1, 0
   339,  1, 1,    1,    1,      3.98,       1.7, 0, 0, 0, 0, 1, 1, 0
   340,  1, 1,    1,    1,      11.2,       1.5, 0, 0, 0, 0, 1, 1, 0
   341,  1, 1,    1,    1,        11,       0.1, 0, 0, 0, 0, 1, 1, 0
   342,  1, 1,    1,    1,      16.3,       1.6, 0, 0, 0, 0, 1, 1, 0
   343,  1, 1,    1,    1,      1.02,       0.5, 0, 0, 0, 0, 1, 1, 0
   344,  1, 1,    1,    1,     13.24,         5, 0, 0, 0, 0, 1, 1, 0
   345,  1, 1,    1,    1,     17.73,         4, 0, 0, 0, 0, 1, 1, 0
   346,  1, 1,    1,    1,     18.34,        13, 0, 0, 0, 0, 1, 1, 0
   347,  1, 1,    1,    1,      8.14,       4.5, 0, 0, 0, 0, 1, 1, 0
   348,  1, 1,    1,    1,      2.04,       0.5, 0, 0, 0, 0, 1, 1, 0
   349,  1, 1,    1,    1,     20.37,       4.5, 0, 0, 0, 0, 1, 1, 0
   350,  1, 1,    1,    1,     19.67,       4.8, 0, 0, 0, 0, 1, 1, 0
   351,  1, 1,    1,    1,     18.04,       3.6, 0, 0, 0, 0, 1, 1, 0
...
0 / END OF LOAD DATA, BEGIN FIXED SHUNT DATA
0 / END OF FIXED SHUNT DATA, BEGIN GENERATOR DATA
    10,  1,       400,       120,       120,         0,        1, 0,     168, 0, 1, 0, 0, 1, 1, 100,       400,        70, 1, 1, 0, 1, 0, 1, 0, 1, 0, 1
    16,  1,       720,   160.532,       440,       -40,        1, 0,     823, 0, 1, 0, 0, 1, 1, 100,       720,       120, 1, 1, 0, 1, 0, 1, 0, 1, 0, 1
    17,  1,      1080,    212.82,       660,       -60,        1, 0,    1234, 0, 1, 0, 0, 1, 1, 100,      1080,       120, 1, 1, 0, 1, 0, 1, 0, 1, 0, 1
    18,  1,      2520,    160.59,      1540,      -140,        1, 0,    2879, 0, 1, 0, 0, 1, 1, 100,      2520,       120, 1, 1, 0, 1, 0, 1, 0, 1, 0, 1
    29,  1,        70,       240,       240,         0,        1, 0,     511, 0, 1, 0, 0, 1, 1, 100,       400,        70, 1, 1, 0, 1, 0, 1, 0, 1, 0, 1
    30,  1,        70,   129.949,       240,         0,        1, 0,     511, 0, 1, 0, 0, 1, 1, 100,       800,        70, 1, 1, 0, 1, 0, 1, 0, 1, 0, 1
    31,  1,      1000,         0,       350,         0,        1, 0,     420, 0, 1, 0, 0, 1, 1, 100,      1000,       150, 1, 1, 0, 1, 0, 1, 0, 1, 0, 1
    41,  1,       200,         0,       120,         0,        1, 0,     241, 0, 1, 0, 0, 1, 1, 100,       200,        70, 1, 1, 0, 1, 0, 1, 0, 1, 0, 1
    42,  1,        70,         0,       120,         0,        1, 0,     241, 0, 1, 0, 0, 1, 1, 100,       410,        70, 1, 1, 0, 1, 0, 1, 0, 1, 0, 1
    43,  1,       410,         0,       240,         0,        1, 0,     482, 0, 1, 0, 0, 1, 1, 100,       410,        70, 1, 1, 0, 1, 0, 1, 0, 1, 0, 1
    44,  1,       410,         0,       240,         0,        1, 0,     482, 0, 1, 0, 0, 1, 1, 100,       410,        70, 1, 1, 0, 1, 0, 1, 0, 1, 0, 1
    45,  1,      42.2,        21,        21,         0,        1, 0,      49, 0, 1, 0, 0, 1, 1, 100,      42.2,     39.14, 1, 1, 0, 1, 0, 1, 0, 1, 0, 1
    63,  1,       650,    103.63,       302,         0,        1, 0,     473, 0, 1, 0, 0, 1, 1, 100,       650,       145, 1, 1, 0, 1, 0, 1, 0, 1, 0, 1
    64,  1,       450,   78.8702,       311,         2,        1, 0,     475, 0, 1, 0, 0, 1, 1, 100,       450,       145, 1, 1, 0, 1, 0, 1, 0, 1, 0, 1
    67,  1,       750,   413.726,       449,         0,        1, 0,     864, 0, 1, 0, 0, 1, 1, 100,       750,       220, 1, 1, 0, 1, 0, 1, 0, 1, 0, 1
    83,  1,       225,       -89,       190,       -89,        1, 0,     239, 0, 1, 0, 0, 1, 1, 100,       225,       140, 1, 1, 0, 1, 0, 1, 0, 1, 0, 1
    84,  1,       225,   167.231,       190,       -89,        1, 0,     251, 0, 1, 0, 0, 1, 1, 100,       225,       140, 1, 1, 0, 1, 0, 1, 0, 1, 0, 1
    85,  1,       120,   119.623,       125,       -50,        1, 0,     133, 0, 1, 0, 0, 1, 1, 100,       120,        40, 1, 1, 0, 1, 0, 1, 0, 1, 0, 1
    86,  1,       120,  -6.01871,       125,       -50,        1, 0,     133, 0, 1, 0, 0, 1, 1, 100,       120,        40, 1, 1, 0, 1, 0, 1, 0, 1, 0, 1
    93,  1,       120,   50.5085,        90,         5,        1, 0,     123, 0, 1, 0, 0, 1, 1, 100,       120,        80, 1, 1, 0, 1, 0, 1, 0, 1, 0, 1
    95,  1,       110,        27,        68,        27,        1, 0,     105, 0, 1, 0, 0, 1, 1, 100,       110,        50, 1, 1, 0, 1, 0, 1, 0, 1, 0, 1
    97,  1,      87.6,   41.8528,        68,        27,        1, 0,     105, 0, 1, 0, 0, 1, 1, 100,      87.6,     83.26, 1, 1, 0, 1, 0, 1, 0, 1, 0, 1
   103,  1,       160,   68.7599,       177,       -82,        1, 0,     239, 0, 1, 0, 0, 1, 1, 100,       400,       160, 1, 1, 0, 1, 0, 1, 0, 1, 0, 1
   104,  1,       225,   97.3097,       379,      -177,        1, 0,     490, 0, 1, 0, 0, 1, 1, 100,       225,       140, 1, 1, 0, 1, 0, 1, 0, 1, 0, 1
   105,  1,       430,      -165,       353,      -165,        1, 0,     502, 0, 1, 0, 0, 1, 1, 100,       430,       160, 1, 1, 0, 1, 0, 1, 0, 1, 0, 1
   109,  1,       250,   17.6233,        65,         0,        1, 0,     277, 0, 1, 0, 0, 1, 1, 100,       250,        80, 1, 1, 0, 1, 0, 1, 0, 1, 0, 1
   110,  1,       250,   17.7852,        65,         0,        1, 0,     280, 0, 1, 0, 0, 1, 1, 100,       250,        80, 1, 1, 0, 1, 0, 1, 0, 1, 0, 1
   111,  1,       360,   126.446,       270,         0,        1, 0,     401, 0, 1, 0, 0, 1, 1, 100,       360,        40, 1, 1, 0, 1, 0, 1, 0, 1, 0, 1
   123,  1,        20,        40,        40,         0,        1, 0,      98, 0, 1, 0, 0, 1, 1, 100,       110,        20, 1, 1, 0, 1, 0, 1, 0, 1, 0, 1
   124,  1,       125,        90,        90,         0,        1, 0,     132, 0, 1, 0, 0, 1, 1, 100,       125,        45, 1, 1, 0, 1, 0, 1, 0, 1, 0, 1
   125,  1,        70,       360,       360,         0,        1, 0,     654, 0, 1, 0, 0, 1, 1, 100,       860,        70, 1, 1, 0, 1, 0, 1, 0, 1, 0, 1
   127,  1,       690,         0,       360,         0,        1, 0,     540, 0, 1, 0, 0, 1, 1, 100,       690,        70, 1, 1, 0, 1, 0, 1, 0, 1, 0, 1
   131,  1,   645.377,   52.6305,       360,         0,        1, 0,     696, 0, 1, 0, 0, 1, 1, 100,      1060,        70, 1, 1, 0, 1, 0, 1, 0, 1, 0, 1
   132,  1,        70,     286.7,       480,         0,        1, 0,     732, 0, 1, 0, 0, 1, 1, 100,       600,        70, 1, 1, 0, 1, 0, 1, 0, 1, 0, 1
   139,  1,    408.67,   147.319,       360,         0,        1, 0,     714, 0, 1, 0, 0, 1, 1, 100,       600,        70, 1, 1, 0, 1, 0, 1, 0, 1, 0, 1
   140,  1,       200,       120,       120,         0,        1, 0,     240, 0, 1, 0, 0, 1, 1, 100,       200,        70, 1, 1, 0, 1, 0, 1, 0, 1, 0, 1
   176,  1,       600,      -120,       220,      -120,        1, 0,     430, 0, 1, 0, 0, 1, 1, 100,       600,        70, 1, 1, 0, 1, 0, 1, 0, 1, 0, 1
   177,  1,       200,   201.005,       220,      -120,        1, 0,     430, 0, 1, 0, 0, 1, 1, 100,       200,        70, 1, 1, 0, 1, 0, 1, 0, 1, 0, 1
   180,  1,         0,   16.8544,       Inf,      -Inf,        1, 0,    7485, 0, 1, 0, 0, 1, 1, 100,         0,         0, 1, 1, 0, 1, 0, 1, 0, 1, 0, 1
   181,  1,       175,   26.1506,       Inf,      -Inf,        1, 0,     210, 0, 1, 0, 0, 1, 1, 100,       175,       174, 1, 1, 0, 1, 0, 1, 0, 1, 0, 1
   182,  1,    307.59,   48.5395,       Inf,      -Inf,        1, 0,   13465, 0, 1, 0, 0, 1, 1, 100,    307.59,       306, 1, 1, 0, 1, 0, 1, 0, 1, 0, 1
   184,  1,         0,   69.5787,       Inf,      -Inf,        1, 0,    8353, 0, 1, 0, 0, 1, 1, 100,         0,         0, 1, 1, 0, 1, 0, 1, 0, 1, 0, 1
   185,  1,         0,    12.233,       Inf,      -Inf,        1, 0,   14254, 0, 1, 0, 0, 1, 1, 100,         0,         0, 1, 1, 0, 1, 0, 1, 0, 1, 0, 1
   186,  1,         0,   32.0974,       Inf,      -Inf,        1, 0,    7401, 0, 1, 0, 0, 1, 1, 100,         0,         0, 1, 1, 0, 1, 0, 1, 0, 1, 0, 1
   192,  1,        95,   28.3494,        50,         0,        1, 0,     114, 0, 1, 0, 0, 1, 1, 100,        95,     90.25, 1, 1, 0, 1, 0, 1, 0, 1, 0, 1
   196,  1,       0.9,         1,         1,         0,        1, 0,       1, 0, 1, 0, 0, 1, 1, 100,       0.9,      0.86, 1, 1, 0, 1, 0, 1, 0, 1, 0, 1
   198,  1,       0.8,         1,         1,         0,        1, 0,       1, 0, 1, 0, 0, 1, 1, 100,       0.8,      0.76, 1, 1, 0, 1, 0, 1, 0, 1, 0, 1
   205,  1,        15,   6.20319,        10,         0,        1, 0,      18, 0, 1, 0, 0, 1, 1, 100,        15,     14.25, 1, 1, 0, 1, 0, 1, 0, 1, 0, 1
   213,  1,        11,         8,         8,         0,        1, 0,      13, 0, 1, 0, 0, 1, 1, 100,        11,     10.45, 1, 1, 0, 1, 0, 1, 0, 1, 0, 1
   264,  1,       2.5,         2,         2,         0,        1, 0,       3, 0, 1, 0, 0, 1, 1, 100,       2.5,      2.38, 1, 1, 0, 1, 0, 1, 0, 1, 0, 1
   269,  1,         6,         5,         5,         0,        1, 0,       7, 0, 1, 0, 0, 1, 1, 100,         6,       5.7, 1, 1, 0, 1, 0, 1, 0, 1, 0, 1
   277,  1,        70,   40.2687,        42,         0,        1, 0,      84, 0, 1, 0, 0, 1, 1, 100,        70,      66.5, 1, 1, 0, 1, 0, 1, 0, 1, 0, 1
   278,  1,        60,   12.5429,        40,         0,        1, 0,      72, 0, 1, 0, 0, 1, 1, 100,        60,        57, 1, 1, 0, 1, 0, 1, 0, 1, 0, 1
   279,  1,        60,   17.8785,        40,         0,        1, 0,      72, 0, 1, 0, 0, 1, 1, 100,        60,        57, 1, 1, 0, 1, 0, 1, 0, 1, 0, 1
   281,  1,       120,   34.0803,        90,         0,        1, 0,     144, 0, 1, 0, 0, 1, 1, 100,       120,       114, 1, 1, 0, 1, 0, 1, 0, 1, 0, 1
   282,  1,        40,   16.9838,        40,         0,        1, 0,      48, 0, 1, 0, 0, 1, 1, 100,        40,        38, 1, 1, 0, 1, 0, 1, 0, 1, 0, 1
   289,  1,       2.5,         3,         3,         0,        1, 0,       3, 0, 1, 0, 0, 1, 1, 100,       2.5,      2.38, 1, 1, 0, 1, 0, 1, 0, 1, 0, 1
   294,  1,         2,         1,         1,         0,        1, 0,       2, 0, 1, 0, 0, 1, 1, 100,         2,       1.9, 1, 1, 0, 1, 0, 1, 0, 1, 0, 1
   314,  1,       1.5,         1,         1,         0,        1, 0,       2, 0, 1, 0, 0, 1, 1, 100,       1.5,      1.43, 1, 1, 0, 1, 0, 1, 0, 1, 0, 1
   328,  1,        44,   19.2819,        21,         0,        1, 0,      53, 0, 1, 0, 0, 1, 1, 100,        44,      41.8, 1, 1, 0, 1, 0, 1, 0, 1, 0, 1
   329,  1,        44,        21,        21,         0,        1, 0,      53, 0, 1, 0, 0, 1, 1, 100,        44,      41.8, 1, 1, 0, 1, 0, 1, 0, 1, 0, 1
   330,  1,        44,         0,        21,         0,        1, 0,      53, 0, 1, 0, 0, 1, 1, 100,        44,      41.8, 1, 1, 0, 1, 0, 1, 0, 1, 0, 1
   331,  1,        43,        21,        21,         0,        1, 0,      52, 0, 1, 0, 0, 1, 1, 100,        43,     40.85, 1, 1, 0, 1, 0, 1, 0, 1, 0, 1
   334,  1,       1.5,         1,         1,         0,        1, 0,       2, 0, 1, 0, 0, 1, 1, 100,       1.5,      1.43, 1, 1, 0, 1, 0, 1, 0, 1, 0, 1
   346,  1,       200,    25.128,       120,         0,        1, 0,     180, 0, 1, 0, 0, 1, 1, 100,       200,        70, 1, 1, 0, 1, 0, 1, 0, 1, 0, 1
   347,  1,        10,   9.77566,        15,         0,        1, 0,      12, 0, 1, 0, 0, 1, 1, 100,        10,        10, 1, 1, 0, 1, 0, 1, 0, 1, 0, 1
   359,  1,       1.5,         1,         1,         0,        1, 0,       2, 0, 1, 0, 0, 1, 1, 100,       1.5,      1.43, 1, 1, 0, 1, 0, 1, 0, 1, 0, 1
   365,  1,       5.1,         3,         3,         0,        1, 0,       6, 0, 1, 0, 0, 1, 1, 100,       5.1,      4.85, 1, 1, 0, 1, 0, 1, 0, 1, 0, 1
   382,  1,         8,         5,         5,         0,        1, 0,      10, 0, 1, 0, 0, 1, 1, 100,         8,       7.6, 1, 1, 0, 1, 0, 1, 0, 1, 0, 1
   383,  1,         8,         5,         5,         0,        1, 0,      10, 0, 1, 0, 0, 1, 1, 100,         8,       7.6, 1, 1, 0, 1, 0, 1, 0, 1, 0, 1
   385,  1,         6,         4,         4,         0,        1, 0,       7, 0, 1, 0, 0, 1, 1, 100,         6,       5.7, 1, 1, 0, 1, 0, 1, 0, 1, 0, 1
   390,  1,       4.5,         3,         3,         0,        1, 0,       5, 0, 1, 0, 0, 1, 1, 100,       4.5,      4.28, 1, 1, 0, 1, 0, 1, 0, 1, 0, 1
   395,  1,        10,   5.15536,         8,         0,        1, 0,      12, 0, 1, 0, 0, 1, 1, 100,        10,       9.5, 1, 1, 0, 1, 0, 1, 0, 1, 0, 1
   404,  1,         3,         3,         3,         0,        1, 0,       4, 0, 1, 0, 0, 1, 1, 100,         3,      2.85, 1, 1, 0, 1, 0, 1, 0, 1, 0, 1
   426,  1,       3.2,         2,         2,         0,        1, 0,       4, 0, 1, 0, 0, 1, 1, 100,       3.2,      3.04, 1, 1, 0, 1, 0, 1, 0, 1, 0, 1
   444,  1,         1,         0,         1,         0,        1, 0,       1, 0, 1, 0, 0, 1, 1, 100,         1,      0.95, 1, 1, 0, 1, 0, 1, 0, 1, 0, 1
   451,  1,       4.5,         3,         3,         0,        1, 0,       5, 0, 1, 0, 0, 1, 1, 100,       4.5,      4.28, 1, 1, 0, 1, 0, 1, 0, 1, 0, 1
   482,  1,         1,         0,         1,         0,        1, 0,       1, 0, 1, 0, 0, 1, 1, 100,         1,      0.95, 1, 1, 0, 1, 0, 1, 0, 1, 0, 1
   492,  1,         2,         1,         1,         0,        1, 0,       2, 0, 1, 0, 0, 1, 1, 100,         2,       1.9, 1, 1, 0, 1, 0, 1, 0, 1, 0, 1
   493,  1,       234,   108.562,       130,         0,        1, 0,     281, 0, 1, 0, 0, 1, 1, 100,       234,     222.3, 1, 1, 0, 1, 0, 1, 0, 1, 0, 1
   494,  1,       234,       130,       130,         0,        1, 0,     281, 0, 1, 0, 0, 1, 1, 100,       234,     222.3, 1, 1, 0, 1, 0, 1, 0, 1, 0, 1
   514,  1,       115,        90,        90,         0,        1, 0,     138, 0, 1, 0, 0, 1, 1, 100,       115,    109.25, 1, 1, 0, 1, 0, 1, 0, 1, 0, 1
   515,  1,       115,        90,        90,         0,        1, 0,     138, 0, 1, 0, 0, 1, 1, 100,       115,    109.25, 1, 1, 0, 1, 0, 1, 0, 1, 0, 1
   525,  1,         6,         4,         4,         0,        1, 0,       7, 0, 1, 0, 0, 1, 1, 100,         6,       5.7, 1, 1, 0, 1, 0, 1, 0, 1, 0, 1
   536,  1,         6,         6,         6,         0,        1, 0,       7, 0, 1, 0, 0, 1, 1, 100,         6,       5.7, 1, 1, 0, 1, 0, 1, 0, 1, 0, 1
   537,  1,       3.5,         3,         3,         0,        1, 0,       4, 0, 1, 0, 0, 1, 1, 100,       3.5,      3.33, 1, 1, 0, 1, 0, 1, 0, 1, 0, 1
   556,  1,       2.7,         1,         1,         0,        1, 0,       3, 0, 1, 0, 0, 1, 1, 100,       2.7,      2.57, 1, 1, 0, 1, 0, 1, 0, 1, 0, 1
   580,  1,       1.6,         1,         1,         0,        1, 0,       2, 0, 1, 0, 0, 1, 1, 100,       1.6,      1.52, 1, 1, 0, 1, 0, 1, 0, 1, 0, 1
   584,  1,       2.7,         2,         2,         0,        1, 0,       3, 0, 1, 0, 0, 1, 1, 100,       2.7,      2.57, 1, 1, 0, 1, 0, 1, 0, 1, 0, 1
   585,  1,         4,         2,         2,         0,        1, 0,       5, 0, 1, 0, 0, 1, 1, 100,         4,       3.8, 1, 1, 0, 1, 0, 1, 0, 1, 0, 1
   607,  1,       0.8,         0,         0,         0,        1, 0,       1, 0, 1, 0, 0, 1, 1, 100,       0.8,      0.76, 1, 1, 0, 1, 0, 1, 0, 1, 0, 1
   612,  1,   152.955,   70.2917,       120,         0,        1, 0,     256, 0, 1, 0, 0, 1, 1, 100,       200,        70, 1, 1, 0, 1, 0, 1, 0, 1, 0, 1
   613,  1,       200,   94.9498,       120,         0,        1, 0,     256, 0, 1, 0, 0, 1, 1, 100,       200,        70, 1, 1, 0, 1, 0, 1, 0, 1, 0, 1
   615,  1,       1.4,         1,         1,         0,        1, 0,       2, 0, 1, 0, 0, 1, 1, 100,       1.4,      1.33, 1, 1, 0, 1, 0, 1, 0, 1, 0, 1
   623,  1,       7.6,         5,         5,         0,        1, 0,       9, 0, 1, 0, 0, 1, 1, 100,       7.6,      7.22, 1, 1, 0, 1, 0, 1, 0, 1, 0, 1
   639,  1,       9.6,         4,         4,         0,        1, 0,      12, 0, 1, 0, 0, 1, 1, 100,       9.6,      9.12, 1, 1, 0, 1, 0, 1, 0, 1, 0, 1
   651,  1,       4.7,         2,         2,         0,        1, 0,       6, 0, 1, 0, 0, 1, 1, 100,       4.7,      4.47, 1, 1, 0, 1, 0, 1, 0, 1, 0, 1
   654,  1,       1.4,         0,         1,         0,        1, 0,       2, 0, 1, 0, 0, 1, 1, 100,       1.4,      1.33, 1, 1, 0, 1, 0, 1, 0, 1, 0, 1
   664,  1,       6.2,         6,         6,         0,        1, 0,       7, 0, 1, 0, 0, 1, 1, 100,       6.2,      5.89, 1, 1, 0, 1, 0, 1, 0, 1, 0, 1
   670,  1,       2.7,         0,         2,         0,        1, 0,       3, 0, 1, 0, 0, 1, 1, 100,       2.7,      2.57, 1, 1, 0, 1, 0, 1, 0, 1, 0, 1
   674,  1,         1,         0,         0,         0,        1, 0,       1, 0, 1, 0, 0, 1, 1, 100,         1,      0.95, 1, 1, 0, 1, 0, 1, 0, 1, 0, 1
   688,  1,        70,   18.0507,       120,         0,        1, 0,     242, 0, 1, 0, 0, 1, 1, 100,       202,        70, 1, 1, 0, 1, 0, 1, 0, 1, 0, 1
   692,  1,       1.4,         1,         1,         0,        1, 0,       2, 0, 1, 0, 0, 1, 1, 100,       1.4,      1.33, 1, 1, 0, 1, 0, 1, 0, 1, 0, 1
   699,  1,       3.8,         0,         2,         0,        1, 0,       5, 0, 1, 0, 0, 1, 1, 100,       3.8,      3.61, 1, 1, 0, 1, 0, 1, 0, 1, 0, 1
   712,  1,       1.2,         1,         1,         0,        1, 0,       1, 0, 1, 0, 0, 1, 1, 100,       1.2,      1.14, 1, 1, 0, 1, 0, 1, 0, 1, 0, 1
   730,  1,       6.9,         0,         3,         0,        1, 0,       8, 0, 1, 0, 0, 1, 1, 100,       6.9,      6.56, 1, 1, 0, 1, 0, 1, 0, 1, 0, 1
   732,  1,       1.1,         0,         1,         0,        1, 0,       1, 0, 1, 0, 0, 1, 1, 100,       1.1,      1.05, 1, 1, 0, 1, 0, 1, 0, 1, 0, 1
   735,  1,       4.1,         2,         2,         0,        1, 0,       5, 0, 1, 0, 0, 1, 1, 100,       4.1,       3.9, 1, 1, 0, 1, 0, 1, 0, 1, 0, 1
   740,  1,         4,         0,         1,         0,        1, 0,       5, 0, 1, 0, 0, 1, 1, 100,         4,       3.8, 1, 1, 0, 1, 0, 1, 0, 1, 0, 1
   744,  1,       134,         0,        60,         0,        1, 0,     161, 0, 1, 0, 0, 1, 1, 100,       134,     127.3, 1, 1, 0, 1, 0, 1, 0, 1, 0, 1
   754,  1,        80,   0.56718,        30,         0,        1, 0,      54, 0, 1, 0, 0, 1, 1, 100,        80,        10, 1, 1, 0, 1, 0, 1, 0, 1, 0, 1
   755,  1,        85,   14.8352,        80,         0,        1, 0,     110, 0, 1, 0, 0, 1, 1, 100,       250,        85, 1, 1, 0, 1, 0, 1, 0, 1, 0, 1
   760,  1,       3.1,         2,         2,         0,        1, 0,       4, 0, 1, 0, 0, 1, 1, 100,       3.1,      2.95, 1, 1, 0, 1, 0, 1, 0, 1, 0, 1
   766,  1,       2.1,         1,         1,         0,        1, 0,       3, 0, 1, 0, 0, 1, 1, 100,       2.1,         2, 1, 1, 0, 1, 0, 1, 0, 1, 0, 1
   784,  1,       0.7,         0,         0,         0,        1, 0,       1, 0, 1, 0, 0, 1, 1, 100,       0.7,      0.67, 1, 1, 0, 1, 0, 1, 0, 1, 0, 1
   790,  1,      49.8,        35,        35,        35,        1, 0,      60, 0, 1, 0, 0, 1, 1, 100,      49.8,     47.31, 1, 1, 0, 1, 0, 1, 0, 1, 0, 1
   795,  1,      1.89,         1,         1,         1,        1, 0,       2, 0, 1, 0, 0, 1, 1, 100,      1.89,       1.8, 1, 1, 0, 1, 0, 1, 0, 1, 0, 1
   798,  1,      2.99,         3,         3,         3,        1, 0,       4, 0, 1, 0, 0, 1, 1, 100,      2.99,      2.84, 1, 1, 0, 1, 0, 1, 0, 1, 0, 1
   814,  1,     44.92,   16.1224,        42,         0,        1, 0,      54, 0, 1, 0, 0, 1, 1, 100,     44.92,     42.67, 1, 1, 0, 1, 0, 1, 0, 1, 0, 1
   834,  1,        55,   81.2873,        83,         0,        1, 0,     110, 0, 1, 0, 0, 1, 1, 100,        55,        23, 1, 1, 0, 1, 0, 1, 0, 1, 0, 1
   878,  1,      2.99,         0,         0,         0,        1, 0,       4, 0, 1, 0, 0, 1, 1, 100,      2.99,      2.84, 1, 1, 0, 1, 0, 1, 0, 1, 0, 1
   884,  1,      2.49,         0,         0,         0,        1, 0,       3, 0, 1, 0, 0, 1, 1, 100,      2.49,      2.37, 1, 1, 0, 1, 0, 1, 0, 1, 0, 1
   892,  1,     31.87,    34.124,        42,         6,        1, 0,      38, 0, 1, 0, 0, 1, 1, 100,     31.87,     30.28, 1, 1, 0, 1, 0, 1, 0, 1, 0, 1
   895,  1,      8.96,         7,         7,         7,        1, 0,      11, 0, 1, 0, 0, 1, 1, 100,      8.96,      8.51, 1, 1, 0, 1, 0, 1, 0, 1, 0, 1
   901,  1,      3.68,         2,         2,         2,        1, 0,       4, 0, 1, 0, 0, 1, 1, 100,      3.68,       3.5, 1, 1, 0, 1, 0, 1, 0, 1, 0, 1
   910,  1,      4.58,         3,         3,         3,        1, 0,       6, 0, 1, 0, 0, 1, 1, 100,      4.58,      4.35, 1, 1, 0, 1, 0, 1, 0, 1, 0, 1
   911,  1,       370,   59.1031,       224,         0,        1, 0,     415, 0, 1, 0, 0, 1, 1, 100,       370,       280, 1, 1, 0, 1, 0, 1, 0, 1, 0, 1
   912,  1,       370,   67.4296,       224,         0,        1, 0,     415, 0, 1, 0, 0, 1, 1, 100,       370,       280, 1, 1, 0, 1, 0, 1, 0, 1, 0, 1
   914,  1,     15.93,        10,        10,        10,        1, 0,      19, 0, 1, 0, 0, 1, 1, 100,     15.93,     15.13, 1, 1, 0, 1, 0, 1, 0, 1, 0, 1
   917,  1,      2.09,         0,         0,         0,        1, 0,       3, 0, 1, 0, 0, 1, 1, 100,      2.09,      1.99, 1, 1, 0, 1, 0, 1, 0, 1, 0, 1
   919,  1,     21.91,        12,        12,        12,        1, 0,      26, 0, 1, 0, 0, 1, 1, 100,     21.91,     20.81, 1, 1, 0, 1, 0, 1, 0, 1, 0, 1
   920,  1,      1.99,         0,         0,         0,        1, 0,       2, 0, 1, 0, 0, 1, 1, 100,      1.99,      1.89, 1, 1, 0, 1, 0, 1, 0, 1, 0, 1
   929,  1,     63.73,   32.3057,        50,        29,        1, 0,      77, 0, 1, 0, 0, 1, 1, 100,     63.73,     60.54, 1, 1, 0, 1, 0, 1, 0, 1, 0, 1
   959,  1,      2.49,         1,         1,         1,        1, 0,       3, 0, 1, 0, 0, 1, 1, 100,      2.49,      2.37, 1, 1, 0, 1, 0, 1, 0, 1, 0, 1
   968,  1,       0.7,         0,         0,         0,        1, 0,       1, 0, 1, 0, 0, 1, 1, 100,       0.7,      0.67, 1, 1, 0, 1, 0, 1, 0, 1, 0, 1
   993,  1,      3.98,         1,         1,         1,        1, 0,       5, 0, 1, 0, 0, 1, 1, 100,      3.98,      3.78, 1, 1, 0, 1, 0, 1, 0, 1, 0, 1
   994,  1,      1.99,         1,         1,         1,        1, 0,       2, 0, 1, 0, 0, 1, 1, 100,      1.99,      1.89, 1, 1, 0, 1, 0, 1, 0, 1, 0, 1
   995,  1,        20,        38,        38,         0,        1, 0,      60, 0, 1, 0, 0, 1, 1, 100,       100,        20, 1, 1, 0, 1, 0, 1, 0, 1, 0, 1
   996,  1,        20,   12.3996,        38,         0,        1, 0,      60, 0, 1, 0, 0, 1, 1, 100,        50,        20, 1, 1, 0, 1, 0, 1, 0, 1, 0, 1
   997,  1,        20,        38,        38,         0,        1, 0,      60, 0, 1, 0, 0, 1, 1, 100,        50,        20, 1, 1, 0, 1, 0, 1, 0, 1, 0, 1
  1004,  1,      4.28,         3,         3,         3,        1, 0,       5, 0, 1, 0, 0, 1, 1, 100,      4.28,      4.07, 1, 1, 0, 1, 0, 1, 0, 1, 0, 1
  1024,  1,       0.1,         0,         0,         0,        1, 0,       0, 0, 1, 0, 0, 1, 1, 100,       0.1,       0.1, 1, 1, 0, 1, 0, 1, 0, 1, 0, 1
  1027,  1,      24.9,        13,        13,        13,        1, 0,      30, 0, 1, 0, 0, 1, 1, 100,      24.9,     23.66, 1, 1, 0, 1, 0, 1, 0, 1, 0, 1
  1028,  1,      2.99,         3,         3,         3,        1, 0,       4, 0, 1, 0, 0, 1, 1, 100,      2.99,      2.84, 1, 1, 0, 1, 0, 1, 0, 1, 0, 1
  1029,  1,      24.9,        14,        14,        14,        1, 0,      30, 0, 1, 0, 0, 1, 1, 100,      24.9,     23.66, 1, 1, 0, 1, 0, 1, 0, 1, 0, 1
  1053,  1,     59.76,   30.2709,        53,         0,        1, 0,      72, 0, 1, 0, 0, 1, 1, 100,     59.76,     56.77, 1, 1, 0, 1, 0, 1, 0, 1, 0, 1
  1054,  1,     29.88,        31,        31,         0,        1, 0,      36, 0, 1, 0, 0, 1, 1, 100,     29.88,     28.39, 1, 1, 0, 1, 0, 1, 0, 1, 0, 1
  1105,  1,      7.97,        10,        10,        10,        1, 0,      10, 0, 1, 0, 0, 1, 1, 100,      7.97,      7.57, 1, 1, 0, 1, 0, 1, 0, 1, 0, 1
  1106,  1,     22.91,        13,        13,        13,        1, 0,      28, 0, 1, 0, 0, 1, 1, 100,     22.91,     21.76, 1, 1, 0, 1, 0, 1, 0, 1, 0, 1
  1107,  1,     10.56,         3,         3,         3,        1, 0,      13, 0, 1, 0, 0, 1, 1, 100,     10.56,     10.03, 1, 1, 0, 1, 0, 1, 0, 1, 0, 1
  1138,  1,     44.82,        41,        41,         0,        1, 0,      54, 0, 1, 0, 0, 1, 1, 100,     44.82,     42.58, 1, 1, 0, 1, 0, 1, 0, 1, 0, 1
  1140,  1,       230,   66.7193,       199,       -87,        1, 0,     252, 0, 1, 0, 0, 1, 1, 100,       230,        70, 1, 1, 0, 1, 0, 1, 0, 1, 0, 1
  1141,  1,    94.917,   48.8205,       190,       -89,        1, 0,     251, 0, 1, 0, 0, 1, 1, 100,       225,        70, 1, 1, 0, 1, 0, 1, 0, 1, 0, 1
  1175,  1,     37.84,        20,        20,        20,        1, 0,      45, 0, 1, 0, 0, 1, 1, 100,     37.84,     35.95, 1, 1, 0, 1, 0, 1, 0, 1, 0, 1
  1182,  1,        40,    12.325,       125,       -50,        1, 0,     133, 0, 1, 0, 0, 1, 1, 100,       120,        40, 1, 1, 0, 1, 0, 1, 0, 1, 0, 1
  1183,  1,       120,   19.5012,       125,       -50,        1, 0,     133, 0, 1, 0, 0, 1, 1, 100,       120,        40, 1, 1, 0, 1, 0, 1, 0, 1, 0, 1
  1184,  1,       120,   61.2682,       125,       -50,        1, 0,     133, 0, 1, 0, 0, 1, 1, 100,       120,        40, 1, 1, 0, 1, 0, 1, 0, 1, 0, 1
  1191,  1,    106.56,   23.6932,       129,       -47,        1, 0,     128, 0, 1, 0, 0, 1, 1, 100,    106.56,    101.23, 1, 1, 0, 1, 0, 1, 0, 1, 0, 1
  1192,  1,       250,   69.2945,       125,       -50,        1, 0,     123, 0, 1, 0, 0, 1, 1, 100,       250,        80, 1, 1, 0, 1, 0, 1, 0, 1, 0, 1
  1201,  1,     99.59,         0,        90,         0,        1, 0,     120, 0, 1, 0, 0, 1, 1, 100,     99.59,     94.61, 1, 1, 0, 1, 0, 1, 0, 1, 0, 1
  1202,  1,     99.59,    71.827,        90,         0,        1, 0,     120, 0, 1, 0, 0, 1, 1, 100,     99.59,     94.61, 1, 1, 0, 1, 0, 1, 0, 1, 0, 1
  1203,  1,     99.59,   44.4643,        90,         0,        1, 0,     120, 0, 1, 0, 0, 1, 1, 100,     99.59,     94.61, 1, 1, 0, 1, 0, 1, 0, 1, 0, 1
  1232,  1,     51.79,   25.1424,        41,         0,        1, 0,      62, 0, 1, 0, 0, 1, 1, 100,     51.79,      49.2, 1, 1, 0, 1, 0, 1, 0, 1, 0, 1
  1233,  1,     14.94,   19.5029,        41,         0,        1, 0,      18, 0, 1, 0, 0, 1, 1, 100,     14.94,     14.19, 1, 1, 0, 1, 0, 1, 0, 1, 0, 1
  1244,  1,     18.92,        20,        20,        20,        1, 0,      23, 0, 1, 0, 0, 1, 1, 100,     18.92,     17.97, 1, 1, 0, 1, 0, 1, 0, 1, 0, 1
  1247,  1,     15.93,        12,        12,        12,        1, 0,      19, 0, 1, 0, 0, 1, 1, 100,     15.93,     15.13, 1, 1, 0, 1, 0, 1, 0, 1, 0, 1
  1250,  1,    197.19,   65.5075,       151,         0,        1, 0,     237, 0, 1, 0, 0, 1, 1, 100,    197.19,    187.33, 1, 1, 0, 1, 0, 1, 0, 1, 0, 1
  1268,  1,       0.5,         0,         0,         0,        1, 0,       1, 0, 1, 0, 0, 1, 1, 100,       0.5,      0.48, 1, 1, 0, 1, 0, 1, 0, 1, 0, 1
...